generation_modeling/bus.csv
,BUS_I,BUS_TYPE,PD,QD,GS,BS,BUS_AREA,VM,VA,BASE_KV,ZONE,VMAX,VMIN
1001.0,1.0,1.0,0.0,0.0,0.0,0.0,1.0,0.964507,0.319654,500.0,3.0,1.2,0.8
1201.0,10.0,1.0,300.176,44.5959,0.0,0.0,1.0,0.964267,0.457225,500.0,3.0,1.2,0.8
1202.0,11.0,1.0,1582.54,503.263,0.0,0.0,1.0,0.965837,0.438751,500.0,3.0,1.2,0.8
1002.0,2.0,1.0,431.302,-448.531,0.0,0.0,1.0,0.964733,0.288779,345.0,3.0,1.2,0.8
1004.0,4.0,3.0,1892.72,682.81,0.0,0.0,1.0,0.965073,0.360713,345.0,10.0,1.2,0.8
1102.0,8.0,1.0,352.225,-1.76969,0.0,0.0,1.0,0.968233,-0.0531268,345.0,3.0,1.2,0.8
6506.0,227.0,1.0,0.0,0.0,0.0,0.0,3.0,0.95558,0.140108,345.0,12.0,1.2,0.8
7001.0,233.0,2.0,2325.81,-8992.12,0.0,0.0,3.0,0.988786,-2.11092,345.0,5.0,1.2,0.8
7002.0,234.0,1.0,1383.33,-3782.27,0.0,0.0,3.0,0.987474,-1.9045,345.0,5.0,1.2,0.8
1101.0,7.0,2.0,8619.53,-2269.78,0.0,0.0,1.0,0.971396,-0.250473,500.0,3.0,1.2,0.8
1401.0,18.0,2.0,12304.5,-1695.9,0.0,0.0,1.0,0.97245,-0.225706,500.0,3.0,1.2,0.8
1402.0,19.0,2.0,9514.28,-4446.99,0.0,0.0,1.0,0.972079,-0.433277,500.0,3.0,1.2,0.8
2901.0,80.0,1.0,0.0,0.0,0.0,0.0,2.0,0.958743,1.11653,500.0,2.0,1.2,0.8
1302.0,14.0,1.0,32.8606,-6.71121,0.0,0.0,1.0,0.969038,-0.320396,500.0,9.0,1.2,0.8
1301.0,13.0,2.0,5057.94,577.002,0.0,0.0,1.0,0.96768,0.299097,500.0,3.0,1.2,0.8
2603.0,56.0,1.0,0.0,0.0,0.0,0.0,2.0,0.956237,1.69173,500.0,2.0,1.2,0.8
1303.0,15.0,2.0,10363.7,-5054.03,0.0,0.0,1.0,0.971753,-0.765396,345.0,9.0,1.2,0.8
6507.0,228.0,1.0,931.678,-367.679,0.0,0.0,3.0,0.935716,-0.703046,345.0,12.0,1.2,0.8
2301.0,30.0,1.0,0.0,0.0,0.0,0.0,2.0,0.970544,1.69065,500.0,2.0,1.2,0.8
2400.0,33.0,2.0,1123.79,395.675,0.0,0.0,2.0,0.967917,0.970724,500.0,2.0,1.2,0.8
1403.0,20.0,1.0,0.0,0.0,0.0,0.0,1.0,0.971297,0.0807756,230.0,3.0,1.2,0.8
2100.0,24.0,1.0,220.172,223.878,0.0,0.0,2.0,0.968419,1.6847,230.0,2.0,1.2,0.8
2000.0,22.0,1.0,853.225,1387.33,0.0,0.0,4.0,0.976929,2.19495,230.0,7.0,1.2,0.8
2202.0,27.0,2.0,1119.2,954.515,0.0,0.0,2.0,0.972435,1.6589,230.0,2.0,1.2,0.8
2302.0,31.0,1.0,0.0,0.0,0.0,0.0,2.0,0.970058,1.85265,230.0,2.0,1.2,0.8
2201.0,26.0,1.0,0.0,0.0,0.0,0.0,2.0,0.972246,1.66113,500.0,2.0,1.2,0.8
2203.0,28.0,2.0,749.632,869.924,0.0,0.0,2.0,0.971591,1.99287,230.0,2.0,1.2,0.8
2503.0,51.0,2.0,1240.98,1068.61,0.0,0.0,2.0,0.966224,1.74879,230.0,2.0,1.2,0.8
2403.0,36.0,2.0,1320.08,444.6,0.0,0.0,2.0,0.965005,1.05303,500.0,2.0,1.2,0.8
2401.0,34.0,2.0,720.062,611.04,0.0,0.0,2.0,0.955073,1.64246,500.0,2.0,1.2,0.8
2402.0,35.0,2.0,984.024,665.958,0.0,0.0,2.0,0.958391,1.50714,500.0,2.0,1.2,0.8
2404.0,37.0,1.0,0.0,0.0,0.0,0.0,2.0,0.946274,1.83776,500.0,2.0,1.2,0.8
2501.0,49.0,1.0,0.0,0.0,0.0,0.0,2.0,0.960659,1.37789,500.0,2.0,1.2,0.8
2902.0,81.0,1.0,0.0,0.0,0.0,0.0,2.0,0.956582,1.28228,500.0,2.0,1.2,0.8
3893.0,125.0,1.0,0.0,0.0,0.0,0.0,2.0,0.952855,1.82122,500.0,2.0,1.2,0.8
3895.0,127.0,1.0,0.0,0.0,0.0,0.0,2.0,0.95289,1.82142,500.0,2.0,1.2,0.8
3897.0,129.0,1.0,0.0,0.0,0.0,0.0,2.0,0.952498,1.82007,500.0,2.0,1.2,0.8
2405.0,38.0,2.0,367.475,477.619,0.0,0.0,2.0,0.955694,2.11198,230.0,2.0,1.2,0.8
2406.0,39.0,2.0,593.501,424.905,0.0,0.0,2.0,0.958,1.64736,230.0,2.0,1.2,0.8
2410.0,43.0,2.0,975.125,973.041,0.0,0.0,2.0,0.954717,1.87216,230.0,2.0,1.2,0.8
2408.0,41.0,2.0,1497.75,1182.46,0.0,0.0,2.0,0.959944,1.60505,230.0,2.0,1.2,0.8
2407.0,40.0,2.0,2243.4,748.751,0.0,0.0,2.0,0.962638,1.0459,230.0,2.0,1.2,0.8
2409.0,42.0,2.0,1313.73,821.981,0.0,0.0,2.0,0.959718,1.60851,230.0,2.0,1.2,0.8
2411.0,44.0,2.0,634.723,715.59,0.0,0.0,2.0,0.948637,1.93577,230.0,2.0,1.2,0.8
2502.0,50.0,2.0,2411.34,1102.16,0.0,0.0,2.0,0.961504,1.35741,230.0,2.0,1.2,0.8
2600.0,53.0,2.0,-1389.12,-1224.39,0.0,0.0,2.0,0.956047,1.74863,500.0,2.0,1.2,0.8
2601.0,54.0,1.0,0.0,0.0,0.0,0.0,2.0,0.955726,1.91638,500.0,2.0,1.2,0.8
2602.0,55.0,1.0,54.608,72.1392,0.0,0.0,2.0,0.955866,1.98513,500.0,2.0,1.2,0.8
2604.0,57.0,1.0,3064.91,-1273.15,0.0,0.0,2.0,0.942542,-0.761664,345.0,2.0,1.2,0.8
6404.0,220.0,1.0,54.2829,-6.21399,0.0,0.0,1.0,0.930733,-0.278784,345.0,9.0,1.2,0.8
6504.0,225.0,1.0,473.245,-185.879,0.0,0.0,3.0,0.933291,-0.888238,345.0,12.0,1.2,0.8
2605.0,58.0,1.0,0.0,0.0,0.0,0.0,2.0,0.955793,2.0371,287.0,2.0,1.2,0.8
2607.0,60.0,1.0,0.0,0.0,0.0,0.0,2.0,0.955683,1.81908,287.0,2.0,1.2,0.8
2606.0,59.0,1.0,0.0,0.0,0.0,0.0,2.0,0.955793,2.0371,287.0,2.0,1.2,0.8
2608.0,61.0,1.0,26.4668,52.9918,0.0,0.0,2.0,0.956253,2.39302,230.0,2.0,1.2,0.8
2611.0,64.0,1.0,30.9824,57.2227,0.0,0.0,2.0,0.956084,2.31657,230.0,2.0,1.2,0.8
2612.0,65.0,1.0,46.0629,83.2745,0.0,0.0,2.0,0.955859,2.20472,230.0,2.0,1.2,0.8
2618.0,71.0,2.0,362.091,467.407,0.0,0.0,2.0,0.955922,2.15991,230.0,2.0,1.2,0.8
2619.0,72.0,2.0,-1067.96,-1480.99,0.0,0.0,2.0,0.955647,2.20336,230.0,2.0,1.2,0.8
2609.0,62.0,1.0,57.2547,103.033,0.0,0.0,2.0,0.95587,2.14177,230.0,2.0,1.2,0.8
2615.0,68.0,2.0,365.985,584.723,0.0,0.0,2.0,0.955844,2.10091,230.0,2.0,1.2,0.8
2617.0,70.0,1.0,47.2953,93.0927,0.0,0.0,2.0,0.95587,2.19099,230.0,2.0,1.2,0.8
2610.0,63.0,1.0,11.433,56.0385,0.0,0.0,2.0,0.955977,2.71221,230.0,2.0,1.2,0.8
2613.0,66.0,2.0,111.362,245.572,0.0,0.0,2.0,0.955893,2.25622,230.0,2.0,1.2,0.8
2616.0,69.0,1.0,42.5827,90.5874,0.0,0.0,2.0,0.95587,2.23325,230.0,2.0,1.2,0.8
2620.0,73.0,1.0,85.8215,127.733,0.0,0.0,2.0,0.955868,2.14786,230.0,2.0,1.2,0.8
2614.0,67.0,1.0,57.8287,108.552,0.0,0.0,2.0,0.955839,2.15508,230.0,2.0,1.2,0.8
3101.0,82.0,2.0,586.136,65.1503,0.0,0.0,2.0,0.920332,0.226508,230.0,2.0,1.2,0.8
3102.0,83.0,1.0,271.277,41.1341,0.0,0.0,2.0,0.920317,0.288421,230.0,2.0,1.2,0.8
3103.0,84.0,2.0,714.078,108.563,0.0,0.0,2.0,0.919843,0.266101,230.0,2.0,1.2,0.8
3302.0,96.0,2.0,593.281,86.3475,0.0,0.0,2.0,0.919609,0.208588,230.0,2.0,1.2,0.8
3204.0,92.0,2.0,1143.01,155.891,0.0,0.0,2.0,0.918764,0.152861,230.0,2.0,1.2,0.8
3305.0,99.0,2.0,742.444,53.2274,0.0,0.0,2.0,0.919032,0.107567,230.0,2.0,1.2,0.8
3104.0,85.0,2.0,399.548,206.386,0.0,0.0,2.0,0.925004,1.07105,115.0,2.0,1.2,0.8
3105.0,86.0,1.0,118.653,173.158,0.0,0.0,2.0,0.930475,2.04989,115.0,2.0,1.2,0.8
3201.0,89.0,2.0,796.595,-9.33319,0.0,0.0,2.0,0.917008,-0.132012,230.0,2.0,1.2,0.8
3202.0,90.0,2.0,1012.37,-14.2258,0.0,0.0,2.0,0.917387,-0.0817305,230.0,2.0,1.2,0.8
3203.0,91.0,2.0,1135.15,81.3822,0.0,0.0,2.0,0.917981,0.00803635,230.0,2.0,1.2,0.8
3923.0,152.0,2.0,684.035,32.2354,0.0,0.0,2.0,0.918214,-0.0325944,230.0,2.0,1.2,0.8
3924.0,153.0,2.0,565.386,-69.7969,0.0,0.0,2.0,0.915384,-0.283214,230.0,2.0,1.2,0.8
3205.0,93.0,2.0,943.596,58.1881,0.0,0.0,2.0,0.918213,0.0456892,230.0,2.0,1.2,0.8
3303.0,97.0,2.0,1052.8,219.178,0.0,0.0,2.0,0.919045,0.31106,230.0,2.0,1.2,0.8
3914.0,143.0,1.0,389.047,83.3107,0.0,0.0,2.0,0.919158,0.26631,230.0,2.0,1.2,0.8
3915.0,144.0,1.0,440.972,43.7253,0.0,0.0,2.0,0.917817,0.0764795,230.0,2.0,1.2,0.8
3301.0,95.0,1.0,0.0,0.0,0.0,0.0,2.0,0.91758,0.209293,500.0,2.0,1.2,0.8
3902.0,131.0,1.0,221.209,119.522,0.0,0.0,2.0,0.922683,0.852398,500.0,2.0,1.2,0.8
3903.0,132.0,1.0,357.978,-60.4652,0.0,0.0,2.0,0.912057,-0.380903,500.0,2.0,1.2,0.8
3304.0,98.0,2.0,911.901,138.874,0.0,0.0,2.0,0.919258,0.231332,230.0,2.0,1.2,0.8
3918.0,147.0,2.0,498.626,190.34,0.0,0.0,2.0,0.922573,0.651022,230.0,2.0,1.2,0.8
3401.0,101.0,2.0,874.186,292.671,0.0,0.0,2.0,0.928747,0.662921,230.0,2.0,1.2,0.8
3402.0,102.0,1.0,0.0,0.0,0.0,0.0,2.0,0.928535,0.664321,230.0,2.0,1.2,0.8
3404.0,104.0,2.0,508.892,343.28,0.0,0.0,2.0,0.929738,1.24913,230.0,2.0,1.2,0.8
3405.0,105.0,2.0,782.211,-19.1857,0.0,0.0,2.0,0.926323,0.0923447,230.0,2.0,1.2,0.8
3804.0,117.0,1.0,185.778,206.315,0.0,0.0,2.0,0.933507,1.65027,230.0,2.0,1.2,0.8
3403.0,103.0,2.0,192.222,383.192,0.0,0.0,2.0,0.93404,2.24852,230.0,2.0,1.2,0.8
3917.0,146.0,1.0,327.031,165.961,0.0,0.0,2.0,0.927267,0.965654,230.0,2.0,1.2,0.8
3907.0,136.0,2.0,785.116,-164.891,0.0,0.0,2.0,0.923899,-0.301257,230.0,2.0,1.2,0.8
3501.0,108.0,2.0,967.752,406.14,0.0,0.0,2.0,0.920843,0.67167,230.0,2.0,1.2,0.8
3601.0,110.0,1.0,53.986,-71.6819,0.0,0.0,2.0,0.927979,-2.05499,115.0,2.0,1.2,0.8
3925.0,154.0,1.0,0.0,0.0,0.0,0.0,2.0,0.921199,-1.72839,115.0,2.0,1.2,0.8
3701.0,112.0,1.0,594.018,-121.777,0.0,0.0,1.0,0.934557,-0.0772538,115.0,9.0,1.2,0.8
3926.0,155.0,1.0,435.45,-163.111,0.0,0.0,2.0,0.928014,-0.4319,115.0,2.0,1.2,0.8
3801.0,114.0,1.0,74.3146,154.203,0.0,0.0,2.0,0.939797,2.25759,500.0,2.0,1.2,0.8
3802.0,115.0,1.0,0.0,0.0,0.0,0.0,2.0,0.936773,1.77289,500.0,2.0,1.2,0.8
3803.0,116.0,1.0,0.0,0.0,0.0,0.0,2.0,0.94078,1.90148,500.0,2.0,1.2,0.8
3891.0,123.0,1.0,0.0,0.0,0.0,0.0,2.0,0.947703,2.1631,500.0,2.0,1.2,0.8
3901.0,130.0,1.0,0.0,0.0,0.0,0.0,2.0,0.925931,0.903882,500.0,2.0,1.2,0.8
3892.0,124.0,1.0,0.0,0.0,0.0,0.0,2.0,0.93537,1.91991,500.0,2.0,1.2,0.8
3894.0,126.0,1.0,0.0,0.0,0.0,0.0,2.0,0.935285,1.9199,500.0,2.0,1.2,0.8
3896.0,128.0,1.0,0.0,0.0,0.0,0.0,2.0,0.934945,1.92324,500.0,2.0,1.2,0.8
3806.0,119.0,1.0,31.5064,90.8202,0.0,0.0,2.0,0.940775,2.82415,230.0,2.0,1.2,0.8
3805.0,118.0,2.0,144.008,344.251,0.0,0.0,2.0,0.941128,2.40369,230.0,2.0,1.2,0.8
8002.0,238.0,1.0,0.0,0.0,0.0,0.0,2.0,0.913844,-0.40993,500.0,2.0,1.2,0.8
3904.0,133.0,1.0,0.0,0.0,0.0,0.0,2.0,0.911182,-0.518804,500.0,2.0,1.2,0.8
3905.0,134.0,1.0,0.0,0.0,0.0,0.0,2.0,0.903505,-1.18345,500.0,2.0,1.2,0.8
3906.0,135.0,1.0,0.0,0.0,0.0,0.0,2.0,0.896148,-1.62448,500.0,2.0,1.2,0.8
4001.0,159.0,1.0,0.0,0.0,0.0,0.0,3.0,0.890246,-1.95199,500.0,11.0,1.2,0.8
3908.0,137.0,1.0,317.615,-128.093,0.0,0.0,2.0,0.922667,-0.593356,230.0,2.0,1.2,0.8
8004.0,240.0,2.0,3299.58,-3480.83,0.0,0.0,2.0,0.930911,-1.58288,230.0,2.0,1.2,0.8
3920.0,149.0,1.0,260.52,-122.179,0.0,0.0,2.0,0.921427,-0.724648,230.0,2.0,1.2,0.8
3909.0,138.0,1.0,230.865,-137.506,0.0,0.0,2.0,0.917996,-0.984374,230.0,2.0,1.2,0.8
3919.0,148.0,1.0,234.368,-169.93,0.0,0.0,2.0,0.914616,-1.10597,230.0,2.0,1.2,0.8
3910.0,139.0,1.0,302.843,-212.557,0.0,0.0,2.0,0.91405,-1.15253,230.0,2.0,1.2,0.8
3911.0,140.0,1.0,240.676,-166.438,0.0,0.0,2.0,0.913671,-1.41992,230.0,2.0,1.2,0.8
3912.0,141.0,1.0,184.839,-169.694,0.0,0.0,2.0,0.912904,-1.38391,230.0,2.0,1.2,0.8
3916.0,145.0,1.0,181.623,-145.633,0.0,0.0,2.0,0.913207,-1.24462,230.0,2.0,1.2,0.8
3921.0,150.0,1.0,148.098,-88.5797,0.0,0.0,2.0,0.909855,-1.46369,230.0,2.0,1.2,0.8
8003.0,239.0,2.0,927.792,-344.987,0.0,0.0,2.0,0.914471,-0.818391,230.0,2.0,1.2,0.8
3913.0,142.0,2.0,506.572,-204.471,0.0,0.0,2.0,0.921259,-0.675209,230.0,2.0,1.2,0.8
3922.0,151.0,1.0,330.388,-213.011,0.0,0.0,2.0,0.911318,-1.07452,230.0,2.0,1.2,0.8
8005.0,241.0,2.0,1921.55,-978.523,0.0,0.0,2.0,0.916716,-0.845199,230.0,2.0,1.2,0.8
4090.0,172.0,1.0,0.0,0.0,0.0,0.0,3.0,0.879131,-2.08622,500.0,11.0,1.2,0.8
4094.0,176.0,1.0,0.0,0.0,0.0,0.0,3.0,0.874864,-2.70945,500.0,11.0,1.2,0.8
4097.0,179.0,1.0,0.0,0.0,0.0,0.0,3.0,0.875006,-2.70659,500.0,11.0,1.2,0.8
4204.0,189.0,1.0,417.508,-651.351,0.0,0.0,3.0,0.884997,-2.3353,500.0,13.0,1.2,0.8
8001.0,237.0,1.0,0.0,0.0,0.0,0.0,2.0,0.905651,-1.03749,500.0,2.0,1.2,0.8
4002.0,160.0,1.0,102.039,-113.211,0.0,0.0,3.0,0.877576,-2.11101,500.0,11.0,1.2,0.8
4003.0,161.0,1.0,0.0,0.0,0.0,0.0,3.0,0.877,-1.37456,500.0,11.0,1.2,0.8
4091.0,173.0,1.0,0.0,0.0,0.0,0.0,3.0,0.874692,-2.49129,500.0,11.0,1.2,0.8
6101.0,198.0,1.0,0.0,0.0,0.0,0.0,3.0,0.897825,-0.686643,500.0,6.0,1.2,0.8
4004.0,162.0,1.0,69.9867,-83.6879,0.0,0.0,3.0,0.874023,-2.7681,500.0,11.0,1.2,0.8
4005.0,163.0,1.0,145.038,251.349,0.0,0.0,3.0,0.867391,-3.67028,500.0,11.0,1.2,0.8
4092.0,174.0,1.0,0.0,0.0,0.0,0.0,3.0,0.884305,-2.11716,500.0,11.0,1.2,0.8
4095.0,177.0,1.0,0.0,0.0,0.0,0.0,3.0,0.885099,-2.07979,500.0,11.0,1.2,0.8
4006.0,164.0,1.0,0.0,0.0,0.0,0.0,3.0,0.867939,-3.99236,500.0,11.0,1.2,0.8
4102.0,181.0,1.0,308.591,412.883,0.0,0.0,3.0,0.861526,-4.243,500.0,13.0,1.2,0.8
4202.0,187.0,1.0,2673.56,2990.43,0.0,0.0,3.0,0.867496,-4.19731,500.0,13.0,1.2,0.8
6202.0,204.0,1.0,29.4781,-24.9619,0.0,0.0,3.0,0.865791,-2.57612,500.0,8.0,1.2,0.8
4007.0,165.0,1.0,0.0,0.0,0.0,0.0,3.0,0.867992,-4.00446,500.0,11.0,1.2,0.8
4008.0,166.0,1.0,211.751,-240.388,0.0,0.0,3.0,0.893013,-1.87864,345.0,11.0,1.2,0.8
6401.0,217.0,2.0,2725.45,-1451.21,0.0,0.0,1.0,0.925873,-0.775966,345.0,9.0,1.2,0.8
4009.0,167.0,1.0,1237.33,1357.01,0.0,0.0,3.0,0.868927,-4.16319,230.0,11.0,1.2,0.8
4010.0,168.0,1.0,1789.25,1541.02,0.0,0.0,3.0,0.868879,-4.1808,230.0,11.0,1.2,0.8
4104.0,183.0,1.0,3796.63,1160.29,0.0,0.0,3.0,0.853648,-5.40988,230.0,13.0,1.2,0.8
4093.0,175.0,1.0,0.0,0.0,0.0,0.0,3.0,0.88573,-2.02914,500.0,11.0,1.2,0.8
4096.0,178.0,1.0,0.0,0.0,0.0,0.0,3.0,0.886622,-1.98672,500.0,11.0,1.2,0.8
4101.0,180.0,1.0,915.231,1021.6,0.0,0.0,3.0,0.855817,-4.632,500.0,13.0,1.2,0.8
4103.0,182.0,1.0,13.3365,9.1651,0.0,0.0,3.0,0.847039,-4.89741,500.0,13.0,1.2,0.8
4201.0,186.0,1.0,7102.85,4888.92,0.0,0.0,3.0,0.859023,-5.02396,500.0,13.0,1.2,0.8
5004.0,195.0,1.0,0.0,0.0,0.0,0.0,3.0,0.84153,-7.68128,230.0,4.0,1.2,0.8
5001.0,192.0,1.0,1373.58,-4.41979,0.0,0.0,3.0,0.856016,-9.36185,500.0,4.0,1.2,0.8
4203.0,188.0,1.0,2660.06,2879.94,0.0,0.0,3.0,0.869672,-4.2457,500.0,13.0,1.2,0.8
5002.0,193.0,1.0,3035.41,3888.68,0.0,0.0,3.0,0.850039,-10.0454,500.0,1.0,1.2,0.8
5003.0,194.0,1.0,187.326,206.671,0.0,0.0,3.0,0.84855,-9.98628,230.0,1.0,1.2,0.8
6102.0,199.0,1.0,1831.66,-389.133,0.0,0.0,3.0,0.906147,-0.476395,345.0,6.0,1.2,0.8
6103.0,200.0,1.0,669.929,-54.1783,0.0,0.0,3.0,0.906823,-0.592984,345.0,6.0,1.2,0.8
6301.0,210.0,1.0,894.293,-36.9106,0.0,0.0,3.0,0.907411,-0.534415,345.0,14.0,1.2,0.8
6403.0,219.0,1.0,3.57001,1.56237,0.0,0.0,1.0,0.928665,0.723935,345.0,9.0,1.2,0.8
6501.0,222.0,1.0,316.861,-81.5271,0.0,0.0,3.0,0.931599,-0.843532,345.0,12.0,1.2,0.8
6104.0,201.0,1.0,2030.25,-1229.09,0.0,0.0,3.0,0.90479,-1.35112,230.0,6.0,1.2,0.8
6204.0,206.0,1.0,555.705,-420.164,0.0,0.0,3.0,0.879324,-1.821,230.0,8.0,1.2,0.8
6305.0,214.0,1.0,102.137,62.901,0.0,0.0,3.0,0.931977,0.337182,230.0,14.0,1.2,0.8
6201.0,203.0,1.0,243.437,-121.842,0.0,0.0,3.0,0.88263,-1.33937,500.0,8.0,1.2,0.8
6203.0,205.0,1.0,848.394,-307.131,0.0,0.0,3.0,0.898225,-1.11765,230.0,8.0,1.2,0.8
6205.0,207.0,1.0,862.436,14.2311,0.0,0.0,3.0,0.894889,-0.390041,230.0,8.0,1.2,0.8
6303.0,212.0,1.0,1315.46,427.567,0.0,0.0,3.0,0.918931,-0.0270739,230.0,14.0,1.2,0.8
6304.0,213.0,1.0,0.0,0.0,0.0,0.0,3.0,0.963093,-1.7856,230.0,14.0,1.2,0.8
6302.0,211.0,1.0,207.232,-741.52,0.0,0.0,3.0,0.984139,-2.10275,345.0,14.0,1.2,0.8
6510.0,231.0,2.0,3063.44,-1544.07,0.0,0.0,3.0,0.93079,-0.918451,230.0,12.0,1.2,0.8
6502.0,223.0,1.0,2480.67,-905.708,0.0,0.0,3.0,0.932857,-0.883756,345.0,12.0,1.2,0.8
6509.0,230.0,1.0,13.7283,-3.88068,0.0,0.0,3.0,0.932788,-0.878634,345.0,12.0,1.2,0.8
6503.0,224.0,1.0,809.208,89.4145,0.0,0.0,3.0,0.937756,-0.263035,345.0,12.0,1.2,0.8
6508.0,229.0,1.0,221.604,-41.5217,0.0,0.0,3.0,0.933742,-0.739085,345.0,12.0,1.2,0.8
6505.0,226.0,1.0,13.1722,3.25925,0.0,0.0,3.0,0.951926,0.047685,345.0,12.0,1.2,0.8
1003.0,3.0,2.0,4267.59,55.1785,0.0,0.0,1.0,0.964607,-0.138266,230.0,10.0,1.2,0.8
1032.0,5.0,2.0,0.0,0.0,0.0,0.0,1.0,0.964672,0.33167,20.0,10.0,1.2,0.8
1034.0,6.0,2.0,0.0,0.0,0.0,0.0,1.0,0.964993,0.400343,20.0,10.0,1.2,0.8
1131.0,9.0,2.0,0.0,0.0,0.0,0.0,1.0,0.97131,-0.20316,20.0,3.0,1.2,0.8
1232.0,12.0,2.0,0.0,0.0,0.0,0.0,1.0,0.965797,0.48073,20.0,3.0,1.2,0.8
1331.0,16.0,2.0,0.0,0.0,0.0,0.0,1.0,0.967653,0.342939,20.0,3.0,1.2,0.8
1333.0,17.0,2.0,0.0,0.0,0.0,0.0,1.0,0.971675,-0.710455,20.0,9.0,1.2,0.8
1431.0,21.0,2.0,0.0,0.0,0.0,0.0,1.0,0.972365,-0.175401,20.0,3.0,1.2,0.8
2030.0,23.0,2.0,0.0,0.0,0.0,0.0,4.0,0.976877,2.23278,20.0,7.0,1.2,0.8
2130.0,25.0,2.0,0.0,0.0,0.0,0.0,2.0,0.968367,1.72393,20.0,2.0,1.2,0.8
2233.0,29.0,2.0,0.0,0.0,0.0,0.0,2.0,0.971534,2.03293,20.0,2.0,1.2,0.8
2332.0,32.0,2.0,0.0,0.0,0.0,0.0,2.0,0.96991,1.88304,20.0,2.0,1.2,0.8
2431.0,45.0,2.0,0.0,0.0,0.0,0.0,2.0,0.955063,1.6487,20.0,2.0,1.2,0.8
2438.0,47.0,2.0,0.0,0.0,0.0,0.0,2.0,0.959907,1.64887,20.0,2.0,1.2,0.8
2439.0,48.0,2.0,0.0,0.0,0.0,0.0,2.0,0.959692,1.61472,20.0,2.0,1.2,0.8
2434.0,46.0,2.0,0.0,0.0,0.0,0.0,2.0,0.948626,1.94213,20.0,2.0,1.2,0.8
2533.0,52.0,2.0,0.0,0.0,0.0,0.0,2.0,0.966032,1.77943,20.0,2.0,1.2,0.8
2634.0,77.0,2.0,0.0,0.0,0.0,0.0,2.0,0.94297,-0.729263,20.0,2.0,1.2,0.8
2621.0,74.0,1.0,113.407,99.1349,0.0,0.0,2.0,0.955859,2.07756,138.0,2.0,1.2,0.8
2638.0,79.0,2.0,0.0,0.0,0.0,0.0,2.0,0.956263,2.40323,20.0,2.0,1.2,0.8
2630.0,75.0,2.0,0.0,0.0,0.0,0.0,2.0,0.955961,2.74016,20.0,2.0,1.2,0.8
2631.0,76.0,2.0,0.0,0.0,0.0,0.0,2.0,0.956091,2.32965,20.0,2.0,1.2,0.8
2637.0,78.0,2.0,0.0,0.0,0.0,0.0,2.0,0.955863,2.22247,20.0,2.0,1.2,0.8
3133.0,87.0,2.0,0.0,0.0,0.0,0.0,2.0,0.919911,0.291168,20.0,2.0,1.2,0.8
3135.0,88.0,2.0,0.0,0.0,0.0,0.0,2.0,0.930533,2.07047,20.0,2.0,1.2,0.8
3234.0,94.0,2.0,0.0,0.0,0.0,0.0,2.0,0.918814,0.18346,20.0,2.0,1.2,0.8
3333.0,100.0,2.0,0.0,0.0,0.0,0.0,2.0,0.919071,0.342937,20.0,2.0,1.2,0.8
3432.0,106.0,2.0,0.0,0.0,0.0,0.0,2.0,0.928535,0.664321,20.0,2.0,1.2,0.8
3433.0,107.0,2.0,0.0,0.0,0.0,0.0,2.0,0.934081,2.28348,20.0,2.0,1.2,0.8
3531.0,109.0,2.0,0.0,0.0,0.0,0.0,2.0,0.920907,0.698204,20.0,2.0,1.2,0.8
3631.0,111.0,2.0,0.0,0.0,0.0,0.0,2.0,0.928103,-2.05828,20.0,2.0,1.2,0.8
3731.0,113.0,2.0,0.0,0.0,0.0,0.0,1.0,0.934865,-0.0452448,20.0,9.0,1.2,0.8
6402.0,218.0,1.0,484.723,-188.075,0.0,0.0,1.0,0.930559,-0.486815,115.0,9.0,1.2,0.8
3831.0,120.0,2.0,0.0,0.0,0.0,0.0,2.0,0.939887,2.28977,20.0,2.0,1.2,0.8
3835.0,121.0,2.0,0.0,0.0,0.0,0.0,2.0,0.941154,2.4388,20.0,2.0,1.2,0.8
3836.0,122.0,2.0,0.0,0.0,0.0,0.0,2.0,0.940849,2.85603,20.0,2.0,1.2,0.8
3932.0,157.0,2.0,0.0,0.0,0.0,0.0,2.0,0.922741,0.883175,20.0,2.0,1.2,0.8
3931.0,156.0,2.0,0.0,0.0,0.0,0.0,2.0,0.910171,-1.45871,20.0,2.0,1.2,0.8
3933.0,158.0,2.0,0.0,0.0,0.0,0.0,2.0,0.918281,0.0,20.0,2.0,1.2,0.8
4031.0,169.0,2.0,0.0,0.0,0.0,0.0,3.0,0.89067,-1.92335,20.0,11.0,1.2,0.8
4035.0,170.0,2.0,0.0,0.0,0.0,0.0,3.0,0.867793,-3.61892,20.0,11.0,1.2,0.8
4039.0,171.0,2.0,0.0,0.0,0.0,0.0,3.0,0.869328,-4.09648,20.0,13.0,1.2,0.8
4131.0,184.0,2.0,0.0,0.0,0.0,0.0,3.0,0.856228,-4.57712,20.0,13.0,1.2,0.8
4132.0,185.0,2.0,0.0,0.0,0.0,0.0,3.0,0.862002,-4.19075,20.0,13.0,1.2,0.8
4231.0,190.0,2.0,0.0,0.0,0.0,0.0,3.0,0.859788,-4.97278,20.0,13.0,1.2,0.8
4232.0,191.0,2.0,0.0,0.0,0.0,0.0,3.0,0.867992,-4.1397,20.0,13.0,1.2,0.8
5031.0,196.0,2.0,0.0,0.0,0.0,0.0,3.0,0.856388,-9.28373,20.0,4.0,1.2,0.8
5032.0,197.0,2.0,0.0,0.0,0.0,0.0,3.0,0.850073,-9.93509,20.0,1.0,1.2,0.8
6132.0,202.0,2.0,0.0,0.0,0.0,0.0,3.0,0.906347,-0.433084,20.0,6.0,1.2,0.8
6231.0,208.0,2.0,0.0,0.0,0.0,0.0,3.0,0.882896,-1.2952,20.0,8.0,1.2,0.8
6235.0,209.0,2.0,0.0,0.0,0.0,0.0,3.0,0.895238,-0.348498,20.0,8.0,1.2,0.8
6333.0,215.0,2.0,0.0,0.0,0.0,0.0,3.0,0.919213,0.0127733,20.0,14.0,1.2,0.8
6335.0,216.0,2.0,0.0,0.0,0.0,0.0,3.0,0.932252,0.377797,20.0,14.0,1.2,0.8
6433.0,221.0,2.0,0.0,0.0,0.0,0.0,1.0,0.92891,0.763131,20.0,9.0,1.2,0.8
6533.0,232.0,2.0,0.0,0.0,0.0,0.0,3.0,0.938009,-0.220038,20.0,12.0,1.2,0.8
7031.0,235.0,2.0,0.0,0.0,0.0,0.0,3.0,0.988558,-2.05985,20.0,5.0,1.2,0.8
7032.0,236.0,2.0,0.0,0.0,0.0,0.0,3.0,0.987304,-1.86317,20.0,5.0,1.2,0.8
8033.0,242.0,2.0,0.0,0.0,0.0,0.0,2.0,0.914664,-0.793987,20.0,2.0,1.2,0.8
8034.0,243.0,2.0,0.0,0.0,0.0,0.0,2.0,0.930985,-1.54596,20.0,2.0,1.2,0.8
